
  EPA STORM WATER MANAGEMENT MODEL - VERSION 5.1 (Build 5.1.010)
  --------------------------------------------------------------

  
  *********************************************************
  NOTE: The summary statistics displayed in this report are
  based on results found at every computational time step,  
  not just on results from each reporting time step.
  *********************************************************
  
  ****************
  Analysis Options
  ****************
  Flow Units ............... CFS
  Process Models:
    Rainfall/Runoff ........ YES
    RDII ................... NO
    Snowmelt ............... NO
    Groundwater ............ NO
    Flow Routing ........... NO
    Water Quality .......... NO
  Infiltration Method ...... HORTON
  Starting Date ............ MAY-10-2013 00:00:00
  Ending Date .............. JUN-24-2013 12:00:00
  Antecedent Dry Days ...... 0.0
  Report Time Step ......... 00:00:30
  Wet Time Step ............ 00:05:00
  Dry Time Step ............ 01:00:00
  
  
  Access violation  at step 1, hour 0 --- execution halted.